RUNSPEC

--REPORTFILE
--ALL LOW
--ITERS DEBUG
--/ It requests the debug info (errors and deviation)

--RPTRST
--FLOWW FLOWO /
-- /
METRIC

DIMENS
82	62	101 /

EQLDIMS
2
/

OIL
WATER
--GAS
--DISGAS
--VAPOIL

--MESSAGES
-- --------------- print limit --------------  ---------------- stop limit ----------------
--   mes     com    war     prb    err   bug      mes     com    war     prb    err   bug
--    1       2      3       4      5     6        1       2      3       4      5     6
--   200000  200000 200000   6000    200    1     200000  200000 200000   6000    200    1  /

WELLDIMS
-- MaxWells  MaxCompl  MaxGroups   MaxWellsPerGroup   MaxSeparatorStages
     200        200        50             20             /
TABDIMS
--   1       2      3       4      5      6      7
-- NTSFUN  NTPVT  NSSFUN  NPPVT  NTFIP  NRPVT  unused  NTENDP
     2      2      1*     1*     2*     1*     /
REGDIMS
--    1      2       3       4        5          6           7
--  NTFIP  NMFIPR  NRFREG  NTFREG  maxTRACK  maxCOALNUM  maxOPERNUM
      2     1       1*      1*       1*         1*          1*   /
FAULTDIM
100000 /

ENDSCALE
/

START
 01 'JAN' 1954 /
/


GRID

NEWTRAN

INCLUDE
'GEO_ups/grid.grdecl' / -- grid

INCLUDE
'GEO_ups/NTG.INC' / -- NTG

INCLUDE
'GEO_ups/PORO.INC' /

INCLUDE
'GEO_ups/PERMX.INC' /
--INCLUDE
--'GEOLOGY/permx0207.INC' /
--INCLUDE
--'GEOLOGY/kz0202.inc' /

NOECHO

ARITHMETIC
--PERMX(,,1:54) = 0.4865*EXP(31.743*PORO) 
--PERMX(,,55:101) = 0.4806*EXP(34.070*PORO) 
PERMX(25:57,14:47,30:48) = (NTG == 0)*5 + (NTG != 0)*0
PERMZ = 0.6*PERMX 
MULTPV=1 
MULTPV(,,101:101) = 20 / 
/

COPY
PERMX PERMY /
/

MINPV
2
/

PROPS
DENSITY
866.5115   1180.0000      1.3255
/
814.5319   1180.0000      1.3704
/

PVTW
200 1 4.5e-5 1.32 0
 /
206 1 4.5e-5 0.73 0 -- Corrected viscosity
 /

PVCDO
97	1.190	9.75e-5	3.5	1.82e-3
/
152	1.303   13.28e-5	0.93	1.89e-3
/


SCALECRS
YES
/


SWOF
0.12800	0.00000	1.00000	0.81800	--	KRO	1.00
0.15780	0.00159	0.87086	0.66098	--	KRW	0.142
0.18760	0.00449	0.75275	0.55154	--	SWC	0.128
0.21740	0.00825	0.64526	0.47125	--	SWOCR	0.276
0.24720	0.01270	0.54798	0.41004	--	Pc(max)	1
0.27700	0.01775	0.46048	0.36197	--	PC_curve	
0.30680	0.02333	0.38233	0.32330	--	no	2.69567184
0.33660	0.02940	0.31309	0.29157	--	nw	1.5
0.36640	0.03592	0.25233	0.26512			
0.39620	0.04287	0.19957	0.24275			
0.42600	0.05020	0.15436	0.22360			
0.45580	0.05792	0.11619	0.20705			
0.48560	0.06600	0.08458	0.19262			
0.51540	0.07441	0.05901	0.17992			
0.54520	0.08316	0.03895	0.16868			
0.57500	0.09223	0.02383	0.15866			
0.60480	0.10161	0.01306	0.14968			
0.63460	0.11128	0.00601	0.14158			
0.66440	0.12124	0.00202	0.13426			
0.69420	0.13148	0.00031	0.12760			
0.72400	0.14200	0.00000	0.12152			
0.76343	0.26457	0.00000	0.11425			
0.80286	0.38714	0.00000	0.10773			
0.84229	0.50971	0.00000	0.10187			
0.88171	0.63229	0.00000	0.09657			
0.92114	0.75486	0.00000	0.09175			
0.96057	0.87743	0.00000	0.08735			
1.00000	1.00000	0.00000	0.00000			
 /
0.1520000	0.0000000	1.0000000	0.8180000	--	KRO	1.00
0.1812000	0.0042245	0.8145063	0.6600051	--	KRW	0.114
0.2104000	0.0090553	0.6561000	0.5501345	--	SWC	0.152
0.2396000	0.0141451	0.5220063	0.4696708	--	SWOCR	0.264
0.2688000	0.0194106	0.4096000	0.4084133	--	Pc(max)	1
0.2980000	0.0248107	0.3164063	0.3603496	--	PC_curve	
0.3272000	0.0303206	0.2401000	0.3217170	--	no	4
0.3564000	0.0359236	0.1785063	0.2900454	--	nw	1.1
0.3856000	0.0416074	0.1296000	0.2636495			
0.4148000	0.0473629	0.0915063	0.2413415			
0.4440000	0.0531829	0.0625000	0.2222617			
0.4732000	0.0590614	0.0410063	0.2057728			
0.5024000	0.0649937	0.0256000	0.1913931			
0.5316000	0.0709757	0.0150063	0.1787519			
0.5608000	0.0770039	0.0081000	0.1675595			
0.5900000	0.0830754	0.0039063	0.1575865			
0.6192000	0.0891875	0.0016000	0.1486489			
0.6484000	0.0953379	0.0005063	0.1405974			
0.6776000	0.1015247	0.0001000	0.1333099			
0.7068000	0.1077459	0.0000063	0.1266852			
0.7360000	0.1140000	0.0000000	0.1206393			
0.7737143	0.2405714	0.0000000	0.1135735			
0.8114286	0.3671429	0.0000000	0.1072300			
0.8491429	0.4937143	0.0000000	0.1015064			
0.8868571	0.6202857	0.0000000	0.0963183			
0.9245714	0.7468571	0.0000000	0.0915958			
0.96229	0.87343	0.00000	0.08728			
1.00000	1.00000	0.00000	0.00000			
 /

INCLUDE
'GEO_ups/Swatinit.inc' /

--INCLUDE
--'GEO_ups/KRWR.INC' /


ARITHMETIC
SWL(,,1:54) = 49.13*(PORO*100)^(-2.105)
SWL(,,55:101) = 1315*((PORO*100)^(-3.22))
SWL = (SWL<0.7)*(SWL*(SWL>0)+(SWL<=0)*0.1)+(SWL>=0.7)*0.7 
SWL = SWL*(SWATINIT >= SWL) + SWATINIT*(SWATINIT < SWL)
SOWCR(,,1:54) =(SWATINIT != 1)*((1-(0.6786+0.0212*LOG(PERMX/1000*1.32/4.22)))*(1-SWATINIT)) + (SWATINIT==1)*(0.301 - 0.008*LOG(PERMX/1000*1.32/4.22))
SOWCR(,,55:101) =(SWATINIT != 1)*((1-(0.6786+0.0212*LOG(PERMX/1000*0.73/1.06)))*(1-SWATINIT))+ (SWATINIT==1)*(0.301 - 0.008*LOG(PERMX/1000*0.7/1.06))
SOWCR=(SOWCR>1)*0.2+(SOWCR<1)*((SOWCR>0)*SOWCR+0.05*(SOWCR<0))
--PCW=28*0.318316*((poro/permx)^0.5) 
KRWR(,,1:54) = 0.142
KRWR(,,55:101) = 0.114
KRWR = (SWATINIT==1)*0.9 + (SWATINIT!=1)*KRWR
 /

COPY
 SWL SWCR /
/

ROCK
 200 2.1E-004 
/
 206 2.1E-004 
/

REGIONS

ARITHMETIC
pvtnum(,,1:54)=1 /
pvtnum(,,55:101)=2 /
satnum=pvtnum /
eqlnum=pvtnum /
fipnum=pvtnum /
/

SOLUTION

EQUIL
     1703.5   200   1703.5    1*     1*    1*    1	1	0	1*   /
     1770   206   1770    1*     1*    1*    1	1	0	1*   /
/

RSVD
1703.5 34.9
1710 34.9
/
1771 99.7
1780 99.7
/

AQUCT
----	N	H	P	k	m	cf+cw	Rad  h	angle
1 1703.5 200 150 0.2 0.000001 3500 16 180 /
2 1771 206 130 0.18 0.000001 3500 13 180 /
--1 1703.5 200 191 0.2 0.000001 3500 16 180 /
--2 1771 206 167 0.18 0.000001 3500 13 180 /
 /

INCLUDE
'GEO_ups/DI_aquancon.inc' /

INCLUDE
'GEO_ups/DIV_aquancon.inc' /

SUMMARY
RPTMAPD
01 'JAN' 1954	/
01 'JAN' 1955	/
01 'JAN' 1956	/
01 'JAN' 1957	/
01 'JAN' 1958	/
01 'JAN' 1959	/
01 'JAN' 1960	/
01 'JAN' 1961	/
01 'JAN' 1962	/
01 'JAN' 1963	/
01 'JAN' 1964	/
01 'JAN' 1965	/
01 'JAN' 1966	/
01 'JAN' 1967	/
01 'JAN' 1968	/
01 'JAN' 1969	/
01 'JAN' 1970	/
01 'JAN' 1971	/
01 'JAN' 1972	/
01 'JAN' 1973	/
01 'JAN' 1974	/
01 'JAN' 1975	/
01 'JAN' 1976	/
01 'JAN' 1977	/
01 'JAN' 1978	/
01 'JAN' 1979	/
01 'JAN' 1980	/
01 'JAN' 1981	/
01 'JAN' 1982	/
01 'JAN' 1983	/
01 'JAN' 1984	/
01 'JAN' 1985	/
01 'JAN' 1986	/
01 'JAN' 1987	/
01 'JAN' 1988	/
01 'JAN' 1989	/
01 'JAN' 1990	/
01 'JAN' 1991	/
01 'JAN' 1992	/
01 'JAN' 1993	/
01 'JAN' 1994	/
01 'JAN' 1995	/
01 'JAN' 1996	/
01 'JAN' 1997	/
01 'JAN' 1998	/
01 'JAN' 1999	/
01 'JAN' 2000	/
01 'JAN' 2001	/
01 'JAN' 2002	/
01 'JAN' 2003	/
01 'JAN' 2004	/
01 'JAN' 2005	/
01 'JAN' 2006	/
01 'JAN' 2007	/
01 'JAN' 2008	/
01 'JAN' 2009	/
01 'JAN' 2010	/
01 'JAN' 2011	/
01 'JAN' 2012	/
01 'NOV' 2012	/
/
RECU

Delt 1 month
Rate 1 month EXACT FIELD WELL end
Freq 1  1  1


Array EQUA year end
1/
GENE rest

EFOR WELL 'DD.MM.YYYY' MDL MDU RAD SKIN MULT

EUNI METRes METRes /

HFOR WELL 'DD.MM.YYYY' QOIL QWAT QWIN WEFA THP BHP

HUNI
sm3/day sm3/day ksm3 ksm3 bara /

INCLUDE 
  'INCL\wells.txt' /
INCLUDE 
  'INCL\perf.inc' /
INCLUDE 
  'INCL\WFRP.INC' /
INCLUDE 
  'INCL\event.txt' /
INCLUDE 
  'INCL\hist.txt' /

READ 1 NOV 2012 /

STOP
